<?xml version='1.0' encoding='UTF-8'?>
<configuration xmlns:xsi="http://www.w3.org/2001/XMLSchema-instance" xsi:noNamespaceSchemaLocation="http://sumo.dlr.de/xsd/sumoConfiguration.xsd">
  <input>
    <net-file value="ring_20210716-1429421626460182.0797641.net.xml"/>
    <route-files value="ring_20210716-1429421626460182.0797641.rou.xml"/>
    <additional-files value="ring_20210716-1429421626460182.0797641.add.xml"/>
    <gui-settings-file value="ring_20210716-1429421626460182.0797641.gui.cfg"/>
  </input>
  <time>
    <begin value="0"/>
  </time>
</configuration>
